*Heading
** Job name: Test Model name: Model-1
** Generated by: Abaqus/CAE 2021
*Preprint, echo=NO, model=NO, history=NO, contact=NO
**
** PARTS
**
*Part, name=Part-1
*Node
      1,           0.,           0.
      2,  0.224999994,           0.
      3,  0.449999988,           0.
      4,  0.675000012,           0.
      5,  0.899999976,           0.
      6,        1.125,           0.
      7,   1.35000002,           0.
      8,   1.57500005,           0.
      9,   1.79999995,           0.
     10,    2.0250001,           0.
     11,         2.25,           0.
     12,    2.4749999,           0.
     13,   2.70000005,           0.
     14,   2.92499995,           0.
     15,    3.1500001,           0.
     16,        3.375,           0.
     17,    3.5999999,           0.
     18,   3.82500005,           0.
     19,   4.05000019,           0.
     20,    4.2750001,           0.
** ... 1661 like lines cut
*Element, type=CPS4
   1,    1,    2,   43,   42
   2,    2,    3,   44,   43
   3,    3,    4,   45,   44
   4,    4,    5,   46,   45
   5,    5,    6,   47,   46
   6,    6,    7,   48,   47
   7,    7,    8,   49,   48
   8,    8,    9,   50,   49
   9,    9,   10,   51,   50
  10,   10,   11,   52,   51
  11,   11,   12,   53,   52
  12,   12,   13,   54,   53
  13,   13,   14,   55,   54
  14,   14,   15,   56,   55
  15,   15,   16,   57,   56
  16,   16,   17,   58,   57
  17,   17,   18,   59,   58
  18,   18,   19,   60,   59
  19,   19,   20,   61,   60
  20,   20,   21,   62,   61
** ... 1580 like lines cut
*Nset, nset=Set-1, generate
1,  1681,  1
*Elset, elset=Set-1, generate
1,  1600,  1
*Solid section, elset=Set-1, material=Material-1
*End Part
** 
*Material, name=Material-1
*Elastic
1.e-20, 0.3  
**
** ASSEMBLY
**
*Assembly, name=Assembly
**  
*Instance, name=Part-1-1, part=Part-1
*End Instance
**  
*Nset, nset=Set-Left, instance=Part-1-1, generate
    1,  1641,    41
*Elset, elset=Set-Left, instance=Part-1-1, generate
    1,  1561,    40
*Nset, nset=Set-Right, instance=Part-1-1, generate
   82,  1640,    41
*Nset, nset=Set-two, instance=Part-1-1
   41, 1681
*End Assembly
** ----------------------------------------------------------------
** 
** STEP: Step-1
** 
*Step, name=Step-1, nlgeom=NO
*Static
1., 1., 1e-05, 0.25
** 
** BOUNDARY CONDITIONS
** 
** Name: BC-1 Type: Displacement/Rotation
*Boundary
Set-Left, 1, 1
Set-Left, 2, 2
** 
** LOADS uelsurface
** 
** Name: Load-1   Type: Concentrated force
*Cload
Set-Right, 1, 0.0225
** Name: Load-2   Type: Concentrated force
*Cload
Set-two, 1, 0.01125 
** 
** OUTPUT REQUESTS
** 
*Restart, write, frequency=0
** 
** FIELD OUTPUT: F-Output-1
** 
*Output, field, variable=PRESELECT
** 
** HISTORY OUTPUT: H-Output-1
** 
*Output, history, variable=PRESELECT
*EL print
SDV
*End Step
